http://cactus.nci.nih.gov/chemical/structure/cholesterol/file?format=sdf&get3d=True
__Jmol-12_03121412243D 1   1.00000     0.00000     0
Jmol version 12.2.2  2011-10-11 22:29 EXTRACT: ({0:73})
 74 77  0  0  0  0              1 V2000
   6.90691   4.17947   0.08082 C   0  0  0  0  0  0
   6.36305   4.68736  -1.25603 C   0  0  0  0  0  0
   7.52958   5.07844  -2.16559 C   0  0  0  0  0  0
   5.54239   3.58313  -1.92531 C   0  0  0  0  0  0
   4.30728   3.27909  -1.07522 C   0  0  0  0  0  0
   3.48657   2.17493  -1.74449 C   0  0  0  0  0  0
   2.25137   1.87084  -0.89436 C   0  0  0  0  0  0
   2.56090   1.62701   0.12189 H   0  0  0  0  0  0
   1.33585   3.09635  -0.86842 C   0  0  0  0  0  0
   1.49733   0.68363  -1.49658 C   0  0  0  0  0  0
   1.19254   0.90965  -2.51837 H   0  0  0  0  0  0
   2.38518  -0.58531  -1.46968 C   0  0  0  0  0  0
   1.59703  -1.65421  -0.66438 C   0  0  0  0  0  0
   0.14310  -1.19368  -0.81519 C   0  0  0  0  0  0
  -0.22879  -1.43304  -1.81144 H   0  0  0  0  0  0
  -0.82239  -1.69721   0.24249 C   0  0  0  0  0  0
  -0.47367  -1.41513   1.23589 H   0  0  0  0  0  0
  -0.94763  -3.22109   0.13796 C   0  0  0  0  0  0
  -2.02584  -3.69293   1.06941 C   0  0  0  0  0  0
  -3.02376  -2.94296   1.43497 C   0  0  0  0  0  0
  -4.05969  -3.53280   2.37715 C   0  0  0  0  0  0
  -5.44804  -3.30455   1.77214 C   0  0  0  0  0  0
  -5.53535  -3.86490   0.84128 H   0  0  0  0  0  0
  -6.44738  -3.74956   2.69146 O   0  0  0  0  0  0
  -5.64246  -1.81391   1.48992 C   0  0  0  0  0  0
  -4.63328  -1.35169   0.43693 C   0  0  0  0  0  0
  -3.21355  -1.52506   0.98443 C   0  0  0  0  0  0
  -3.05924  -0.61290   2.20291 C   0  0  0  0  0  0
  -2.19116  -1.06261  -0.03992 C   0  0  0  0  0  0
  -2.50921  -1.40892  -1.02320 H   0  0  0  0  0  0
  -2.13564   0.46243  -0.06125 C   0  0  0  0  0  0
  -1.05827   0.98036  -1.02666 C   0  0  0  0  0  0
   0.27855   0.34429  -0.64423 C   0  0  0  0  0  0
   0.57881   0.61462   0.83132 C   0  0  0  0  0  0
   6.07586   3.90089   0.72877 H   0  0  0  0  0  0
   7.54061   3.30967  -0.09163 H   0  0  0  0  0  0
   7.49153   4.96619   0.55766 H   0  0  0  0  0  0
   5.72935   5.55716  -1.08357 H   0  0  0  0  0  0
   8.16328   4.20864  -2.33805 H   0  0  0  0  0  0
   7.14210   5.44021  -3.11795 H   0  0  0  0  0  0
   8.11420   5.86516  -1.68876 H   0  0  0  0  0  0
   5.22940   3.91282  -2.91601 H   0  0  0  0  0  0
   6.15067   2.68336  -2.01721 H   0  0  0  0  0  0
   4.62027   2.94940  -0.08452 H   0  0  0  0  0  0
   3.69900   4.17886  -0.98332 H   0  0  0  0  0  0
   3.17358   2.50462  -2.73518 H   0  0  0  0  0  0
   4.09485   1.27517  -1.83638 H   0  0  0  0  0  0
   0.45591   2.87971  -0.26276 H   0  0  0  0  0  0
   1.87307   3.94221  -0.43947 H   0  0  0  0  0  0
   1.02640   3.34023  -1.88470 H   0  0  0  0  0  0
   2.56375  -0.93853  -2.48521 H   0  0  0  0  0  0
   3.33268  -0.36869  -0.97637 H   0  0  0  0  0  0
   1.73508  -2.64409  -1.09926 H   0  0  0  0  0  0
   1.89731  -1.64670   0.38340 H   0  0  0  0  0  0
  -1.20416  -3.49601  -0.88504 H   0  0  0  0  0  0
  -0.00002  -3.68398   0.41352 H   0  0  0  0  0  0
  -1.97045  -4.70060   1.45382 H   0  0  0  0  0  0
  -3.88204  -4.60164   2.49547 H   0  0  0  0  0  0
  -3.99639  -3.04009   3.34728 H   0  0  0  0  0  0
  -6.38498  -4.68785   2.91644 H   0  0  0  0  0  0
  -6.65422  -1.64361   1.12190 H   0  0  0  0  0  0
  -5.49201  -1.24817   2.40932 H   0  0  0  0  0  0
  -4.75031  -1.95014  -0.46638 H   0  0  0  0  0  0
  -4.80702  -0.30144   0.20293 H   0  0  0  0  0  0
  -3.69800  -0.97294   3.00945 H   0  0  0  0  0  0
  -2.02014  -0.61895   2.53208 H   0  0  0  0  0  0
  -3.34973   0.40297   1.93538 H   0  0  0  0  0  0
  -3.10629   0.84886  -0.37185 H   0  0  0  0  0  0
  -1.91585   0.82391   0.94324 H   0  0  0  0  0  0
  -1.28908   0.66525  -2.04424 H   0  0  0  0  0  0
  -1.00644   2.06790  -0.97636 H   0  0  0  0  0  0
  -0.26036   0.27872   1.44037 H   0  0  0  0  0  0
   1.47914   0.07444   1.12388 H   0  0  0  0  0  0
   0.73163   1.68344   0.98111 H   0  0  0  0  0  0
  1  2  1  0  0  0
  2  3  1  0  0  0
  2  4  1  0  0  0
  4  5  1  0  0  0
  5  6  1  0  0  0
  6  7  1  0  0  0
  7  8  1  0  0  0
  7  9  1  0  0  0
  7 10  1  0  0  0
 10 11  1  0  0  0
 10 12  1  0  0  0
 12 13  1  0  0  0
 13 14  1  0  0  0
 14 15  1  0  0  0
 14 16  1  0  0  0
 16 17  1  0  0  0
 16 18  1  0  0  0
 18 19  1  0  0  0
 19 20  2  0  0  0
 20 21  1  0  0  0
 21 22  1  0  0  0
 22 23  1  0  0  0
 22 24  1  0  0  0
 22 25  1  0  0  0
 25 26  1  0  0  0
 26 27  1  0  0  0
 20 27  1  0  0  0
 27 28  1  0  0  0
 27 29  1  0  0  0
 29 30  1  0  0  0
 16 29  1  0  0  0
 29 31  1  0  0  0
 31 32  1  0  0  0
 32 33  1  0  0  0
 10 33  1  0  0  0
 14 33  1  0  0  0
 33 34  1  0  0  0
  1 35  1  0  0  0
  1 36  1  0  0  0
  1 37  1  0  0  0
  2 38  1  0  0  0
  3 39  1  0  0  0
  3 40  1  0  0  0
  3 41  1  0  0  0
  4 42  1  0  0  0
  4 43  1  0  0  0
  5 44  1  0  0  0
  5 45  1  0  0  0
  6 46  1  0  0  0
  6 47  1  0  0  0
  9 48  1  0  0  0
  9 49  1  0  0  0
  9 50  1  0  0  0
 12 51  1  0  0  0
 12 52  1  0  0  0
 13 53  1  0  0  0
 13 54  1  0  0  0
 18 55  1  0  0  0
 18 56  1  0  0  0
 19 57  1  0  0  0
 21 58  1  0  0  0
 21 59  1  0  0  0
 24 60  1  0  0  0
 25 61  1  0  0  0
 25 62  1  0  0  0
 26 63  1  0  0  0
 26 64  1  0  0  0
 28 65  1  0  0  0
 28 66  1  0  0  0
 28 67  1  0  0  0
 31 68  1  0  0  0
 31 69  1  0  0  0
 32 70  1  0  0  0
 32 71  1  0  0  0
 34 72  1  0  0  0
 34 73  1  0  0  0
 34 74  1  0  0  0
M  END
