file:/home/snehalatha/Documents/Files-March14-2022/Jmol-mol-files/Diels-Alder...
__Jmol-14_05192211033D 1   1.00000     0.00000     0
Jmol version 14.31.32  2021-02-06 23:16 EXTRACT: ({0:23})
 24 22  0  0  0  0            999 V2000
   -0.0116    0.4231    0.1724 C   0  0  0  0  0  0
    1.0505   -0.2560    0.6281 C   0  0  0  0  0  0
   -0.0975    1.8808    0.2217 C   0  0  0  0  0  0
    3.5944    0.5177   -1.3038 C   0  0  0  0  0  0
    3.5486    1.8500   -1.1867 C   0  0  0  0  0  0
    3.2567    2.6793   -2.3751 C   0  0  0  0  0  0
    0.2935    2.6583   -0.7964 C   0  0  0  0  0  0
    3.1369    3.8950   -2.2949 O   0  0  0  0  0  0
    3.4126    0.0050   -2.2444 H   0  0  0  0  0  0
    3.7964   -0.1040   -0.4374 H   0  0  0  0  0  0
    3.6898    2.3683   -0.2416 H   0  0  0  0  0  0
   -0.7326    2.4736    1.4453 C   0  0  0  0  0  0
    0.6873    2.2400   -1.7146 H   0  0  0  0  0  0
    0.2208    3.7423   -0.7481 H   0  0  0  0  0  0
   -1.2089   -0.2786   -0.4042 C   0  0  0  0  0  0
    1.9026    0.2485    1.0721 H   0  0  0  0  0  0
    1.0902   -1.3408    0.5829 H   0  0  0  0  0  0
   -1.3170    3.3658    1.1898 H   0  0  0  0  0  0
    0.0294    2.7580    2.1793 H   0  0  0  0  0  0
   -1.4213    1.7745    1.9226 H   0  0  0  0  0  0
   -1.5221    0.1772   -1.3510 H   0  0  0  0  0  0
   -2.0513   -0.2271    0.2955 H   0  0  0  0  0  0
   -1.0089   -1.3322   -0.6047 H   0  0  0  0  0  0
    3.1383    2.1437   -3.3289 H   0  0  0  0  0  0
  1  2  2  0  0  0
  3  1  1  0  0  0
  5  4  2  0  0  0
  6  5  1  0  0  0
  7  3  2  0  0  0
  8  6  2  0  0  0
  9  4  1  0  0  0
 10  4  1  0  0  0
 11  5  1  0  0  0
 12  3  1  0  0  0
 13  7  1  0  0  0
 14  7  1  0  0  0
 15  1  1  0  0  0
 16  2  1  0  0  0
 17  2  1  0  0  0
 18 12  1  0  0  0
 19 12  1  0  0  0
 20 12  1  0  0  0
 21 15  1  0  0  0
 22 15  1  0  0  0
 23 15  1  0  0  0
 24  6  1  0  0  0
M  END
