file:/home/snehalatha/Documents/Files-March14-2022/Jmol-mol-files/Diels-Alder...
__Jmol-14_05262216343D 1   1.00000     0.00000     0
Jmol version 14.31.32  2021-02-06 23:16 EXTRACT: ({0:18})
 19 18  0  0  0  0            999 V2000
   -0.3283   -0.0923    0.5524 C   0  0  0  0  0  0
    0.4677    0.8968    0.9881 C   0  0  0  0  0  0
   -0.2546   -1.5006    0.8860 C   0  0  0  0  0  0
    0.6973   -2.1262    1.5962 C   0  0  0  0  0  0
    2.7988   -1.6593   -0.9015 C   0  0  0  0  0  0
    3.7542   -2.0077    0.1505 C   0  0  0  0  0  0
    2.7644   -0.3356   -0.9785 C   0  0  0  0  0  0
    3.6573    0.1842    0.0567 C   0  0  0  0  0  0
    4.2637   -0.8607    0.6551 O   0  0  0  0  0  0
    3.7887    1.3652    0.3472 O   0  0  0  0  0  0
    4.0123   -3.1404    0.5152 O   0  0  0  0  0  0
   -1.1319    0.1719   -0.1248 H   0  0  0  0  0  0
    1.2867    0.7348    1.6774 H   0  0  0  0  0  0
    0.3111    1.9149    0.6529 H   0  0  0  0  0  0
   -1.0659   -2.1027    0.4937 H   0  0  0  0  0  0
    1.5373   -1.6076    2.0385 H   0  0  0  0  0  0
    0.6453   -3.1963    1.7576 H   0  0  0  0  0  0
    2.2074   -2.3910   -1.4394 H   0  0  0  0  0  0
    2.1342    0.2932   -1.5984 H   0  0  0  0  0  0
  1  2  2  0  0  0
  4  3  2  0  0  0
  6  5  1  0  0  0
  7  5  2  0  0  0
  8  7  1  0  0  0
  9  8  1  0  0  0
 10  8  2  0  0  0
  6  9  1  0  0  0
 11  6  2  0  0  0
  1  3  1  0  0  0
 12  1  1  0  0  0
 13  2  1  0  0  0
 14  2  1  0  0  0
 15  3  1  0  0  0
 16  4  1  0  0  0
 17  4  1  0  0  0
 18  5  1  0  0  0
 19  7  1  0  0  0
M  END
