file:/home/snehalatha/Documents/Files-March14-2022/Jmol-mol-files/Dicholoroet...
__Jmol-14_04112212383D 1   1.00000     0.00000     0
Jmol version 14.32.46  2022-04-07 01:16 EXTRACT: ({0:7})
  8  7  0  0  0  0            999 V2000
   -0.0042   -0.0034   -0.0116 C   0  0  1  0  0  0
    0.0745   -0.0907    1.5074 C   0  0  2  0  0  0
   -0.0585    1.6993   -0.5334 Cl  0  0  0  0  0  0
    0.8722   -0.4650   -0.4840 H   0  0  0  0  0  0
   -0.8983   -0.4972   -0.3995 H   0  0  0  0  0  0
    0.9693    0.4013    1.8968 H   0  0  0  0  0  0
    0.1263   -1.7942    2.0264 Cl  0  0  0  0  0  0
   -0.8033    0.3709    1.9795 H   0  0  0  0  0  0
  1  5  1  0  0  0
  1  2  1  0  0  0
  3  1  1  0  0  0
  4  1  1  0  0  0
  6  2  1  0  0  0
  7  2  1  0  0  0
  8  2  1  0  0  0
M  END
