string
__Jmol-14_04112212253D 1   1.00000     0.00000     0
Jmol version 14.32.46  2022-04-07 01:16 EXTRACT: ({0:7})
  8  7  0  0  0  0            999 V2000
    0.0018   -0.0039   -0.0115 C   0  0  1  0  0  0
    0.0138   -0.0777    1.5097 C   0  0  2  0  0  0
   -1.4862    0.7918   -0.5836 Cl  0  0  0  0  0  0
    0.8518    0.5755   -0.3897 H   0  0  0  0  0  0
    0.0388   -0.9994   -0.4618 H   0  0  0  0  0  0
   -0.8443   -0.6385    1.8918 H   0  0  0  0  0  0
   -0.0576    1.5590    2.2100 Cl  0  0  0  0  0  0
    0.9277   -0.5547    1.8783 H   0  0  0  0  0  0
  1  5  1  0  0  0
  1  2  1  0  0  0
  3  1  1  0  0  0
  4  1  1  0  0  0
  6  2  1  0  0  0
  7  2  1  0  0  0
  8  2  1  0  0  0
M  END
