string
__Jmol-14_04112212243D 1   1.00000     0.00000     0
Jmol version 14.32.46  2022-04-07 01:16 EXTRACT: ({0:7})
  8  7  0  0  0  0            999 V2000
    0.0024   -0.0037   -0.0114 C   0  0  1  0  0  0
   -0.0705   -0.1069    1.5063 C   0  0  2  0  0  0
   -1.4527    0.8019   -0.6504 Cl  0  0  0  0  0  0
    0.8712    0.5836   -0.3302 H   0  0  0  0  0  0
    0.0664   -0.9903   -0.4781 H   0  0  0  0  0  0
   -0.0469   -1.1485    1.8401 H   0  0  0  0  0  0
   -1.5853    0.6158    2.1043 Cl  0  0  0  0  0  0
    0.7593    0.4254    1.9822 H   0  0  0  0  0  0
  1  5  1  0  0  0
  1  2  1  0  0  0
  3  1  1  0  0  0
  4  1  1  0  0  0
  6  2  1  0  0  0
  7  2  1  0  0  0
  8  2  1  0  0  0
M  END
